Circuit: * C:\Electronics Trunk\Boost Converter\Boost_Converter-\LTspice sims\555AstableFlipFlop.asc

Direct Newton iteration for .op point succeeded.

Date: Sun Nov 19 17:13:23 2017
Total elapsed time: 0.634 seconds.

tnom = 27
temp = 27
method = modified trap
totiter = 56286
traniter = 56281
tranpoints = 12782
accept = 10247
rejected = 2535
matrix size = 15
fillins = 0
solver = Normal
Matrix Compiler1: 452 bytes object code size  0.8/0.3/[0.2]
Matrix Compiler2: 887 bytes object code size  0.4/0.5/[0.3]

