Circuit: * C:\Electronics Trunk\Boost Converter\Boost_Converter-\LTspice sims\boost_converter.asc

Direct Newton iteration failed to find .op point.  (Use ".option noopiter" to skip.)
Starting Gmin stepping
Gmin = 10
Gmin = 1.07374
Gmin = 0.115292
Gmin = 0.0123794
Gmin = 0.00132923
Gmin = 0.000142725
Gmin = 1.5325e-005
vernier = 0.5
vernier = 0.25
vernier = 0.125
vernier = 0.0625
Gmin = 5.02168e-006
vernier = 0.03125
vernier = 0.015625
vernier = 0.0078125
vernier = 0.00390625
vernier = 0.00195313
vernier = 0.000976563
vernier = 0.000488281
Gmin = 0
Gmin stepping failed

Starting source stepping with srcstepmethod=0
Source Step = 3.0303%
Source Step = 33.3333%
Source Step = 63.6364%
Source Step = 88.6364%
vernier = 0.0625
Source Step = 87.8995%
Starting source stepping with srcstepmethod=1
Source Step = 3.0303%
Source Step = 33.3333%
Source Step = 63.6364%
Source stepping failed

Pseudo Transient succeeded in finding the operating point.

Date: Mon Nov 20 11:34:04 2017
Total elapsed time: 8.844 seconds.

tnom = 27
temp = 27
method = modified trap
totiter = 181882
traniter = 170056
tranpoints = 83603
accept = 70316
rejected = 13785
matrix size = 37
fillins = 77
solver = Normal
Matrix Compiler1: 6.32 KB object code size  4.7/2.4/[1.5]
Matrix Compiler2: 4.76 KB object code size  1.5/2.4/[1.6]

