Circuit: * C:\Electronics Trunk\Boost Converter\Boost_Converter-\LTspice sims\boost_converter.asc

WARNING: Less than two connections to node N007.  This node is used by R11.
Direct Newton iteration failed to find .op point.  (Use ".option noopiter" to skip.)
Starting Gmin stepping
Gmin = 10
Gmin = 1.07374
Gmin = 0.115292
Gmin = 0.0123794
Gmin = 0.00132923
Gmin = 0.000142725
Gmin = 1.5325e-005
Gmin = 1.6455e-006
Gmin = 1.76685e-007
Gmin = 1.89714e-008
Gmin = 2.03704e-009
Gmin = 2.18725e-010
Gmin = 2.34854e-011
Gmin = 2.52173e-012
Gmin = 2.70769e-013
Gmin = 0
Gmin stepping succeeded in finding the operating point.

Heightened Def Con from 0.0406901 to 0.0406901

Date: Wed Nov 29 12:43:22 2017
Total elapsed time: 24.187 seconds.

tnom = 27
temp = 27
method = modified trap
totiter = 673020
traniter = 672620
tranpoints = 201255
accept = 153757
rejected = 47499
matrix size = 46
fillins = 37
solver = Normal
Matrix Compiler1: 4.07 KB object code size  5.1/3.2/[1.4]
Matrix Compiler2: 4.70 KB object code size  2.1/2.6/[1.4]

